33
Coordinates from ORCA-job ABS
  C   -0.00515200000000      0.78276800000000     -0.10851600000000
  C   -0.03225700000000      1.34031100000000      1.16859100000000
  C   -0.05469000000000      1.64057400000000     -1.20971800000000
  C   -0.10594700000000      2.71859200000000      1.34561000000000
  H   -0.00139500000000      0.68636600000000      2.03144700000000
  C   -0.12755700000000      3.01745800000000     -1.03852500000000
  H   -0.03175200000000      1.23227600000000     -2.21314600000000
  C   -0.15358700000000      3.56215400000000      0.24218200000000
  H   -0.12672600000000      3.13132700000000      2.34646700000000
  H   -0.16239200000000      3.66686200000000     -1.90453600000000
  H   -0.21004100000000      4.63485300000000      0.37683600000000
  C   -1.22935700000000     -1.25887500000000     -0.93789800000000
  H   -1.16409800000000     -2.34749500000000     -1.01761600000000
  H   -1.32127700000000     -0.86814300000000     -1.95507500000000
  C   -2.52140600000000     -0.88898900000000     -0.18553800000000
  H   -2.58657300000000      0.20197500000000     -0.13410000000000
  C   -3.77370500000000     -1.43110100000000     -0.89023700000000
  H   -4.68036000000000     -1.14638800000000     -0.35664300000000
  H   -3.82559000000000     -1.02643900000000     -1.90186600000000
  H   -3.74099900000000     -2.51956800000000     -0.95436500000000
  C   -2.46287800000000     -1.36464200000000      1.19762200000000
  N   -2.40564600000000     -1.75236000000000      2.28089500000000
  C   1.29229100000000     -1.16829300000000     -1.09573400000000
  H   1.26835200000000     -2.25670900000000     -1.19799100000000
  H   1.22104700000000     -0.75468200000000     -2.10838300000000
  C   2.58481400000000     -0.74817800000000     -0.46597100000000
  H   2.74917000000000      0.32303400000000     -0.37807400000000
  C   3.50644100000000     -1.58384500000000      0.00192500000000
  H   3.33156500000000     -2.65505600000000     -0.08234100000000
  C   4.79176500000000     -1.17308600000000      0.65016000000000
  H   4.86149900000000     -1.56590000000000      1.66899900000000
  H   5.65380500000000     -1.56542000000000      0.10211100000000
  H   4.88392900000000     -0.08684900000000      0.69740600000000
