6
Coordinates from ORCA-job C=C
  C   0.66295960043989      0.02541861757406     -0.02326639704686
  C   -0.66298344840977     -0.02542456210122      0.02326783174401
  H   1.26620202957352     -0.86873350120923      0.04321288032731
  H   1.18986642297834      0.96290515262240     -0.12938244804136
  H   -1.18989682101288     -0.96291690125496      0.12938465258992
  H   -1.26614678356910      0.86875119436895     -0.04321651957302
