24
Coordinates from ORCA-job PET
  C   4.98220867072966      0.57376195456019     -0.00000765865471
  H   5.29959163220231      0.02957887534473      0.88512478076728
  H   5.38857473429694      1.57816961929495     -0.00002782335699
  O   3.55586317242369      0.73753275452533      0.00014454588720
  C   2.85072659849636     -0.40925574231056      0.00025604265242
  O   3.36352928627452     -1.50513022606929     -0.00005215327164
  C   1.38148065351804     -0.16919941178290      0.00008243128542
  C   0.83614349372676      1.11659174088162      0.00014279737297
  C   0.54010681085301     -1.28245425290881     -0.00012688263553
  C   -0.54010508708209      1.28245791374225      0.00001261968102
  H   1.48949299881357      1.97434057115623      0.00030303003352
  C   -0.83614267906352     -1.11658847974161     -0.00025036866283
  H   0.98260520474171     -2.26698730882823     -0.00017432569919
  C   -1.38147781107098      0.16920404424612     -0.00018674711280
  H   -0.98260387782737      2.26699084261878      0.00006138878757
  H   -1.48949669187360     -1.97433472571883     -0.00040670661365
  C   -2.85072214989186      0.40926637186304     -0.00032431130413
  O   -3.36351858527600      1.50514385143411     -0.00003871921605
  O   -3.55586668981989     -0.73751558119005     -0.00010629915130
  H   5.29941051543875      0.02962094663288     -0.88523107720056
  C   -4.98220877853111     -0.57372454796174      0.00011378289903
  H   -5.29962990560754     -0.02954678900162     -0.88500770193846
  H   -5.38858733057504     -1.57812480878942      0.00017108305897
  H   -5.29935818489632     -0.02957161199716      0.88534927239245
