26
Coordinates from ORCA-job PLA
  O   2.56311981467268      0.91410015427831      0.41422543186874
  C   1.48392504222648      0.79451165292866     -0.47355709736383
  H   1.76329007739380      0.18514744033461     -1.34084040844148
  C   1.08894995224666      2.19328712100590     -0.92532052989770
  H   1.93281964855823      2.65784452681829     -1.42925010131293
  H   0.23834032270913      2.15214115241138     -1.60056663133313
  H   0.82105065755391      2.79355200441838     -0.05876339609147
  C   0.27784621272365      0.13204627232153      0.18215502318419
  O   -0.55871525359497     -0.35656740650106     -0.75966807752707
  O   0.05808429104926      0.06918709205890      1.36591224284761
  C   -1.80424824979404     -0.85468019502633     -0.25373826484403
  H   -1.59986421125145     -1.62113729911603      0.49285146322798
  C   -2.56205451963897     -1.42484238719297     -1.43868492044387
  H   -1.98744565986352     -2.22440168760992     -1.90012240368277
  H   -3.52120090824456     -1.82891619930452     -1.11946384887663
  H   -2.73758207227853     -0.64343281810280     -2.17468760790034
  C   -2.60568357298938      0.27971685585940      0.39364359461633
  O   -2.51866783287181      1.41293415982476     -0.01979570178647
  C   -3.50164463916614     -0.12058575389182      1.53248856081349
  H   -4.05046594145849     -1.03384681375483      1.30340233333085
  H   -2.86967637960111     -0.32807390450390      2.39720420553053
  H   -4.18988573342136      0.68431915873045      1.76858031823901
  C   3.15100295360066     -0.32588474865526      0.76344514856979
  H   3.49103110931214     -0.86166184016121     -0.12833969150320
  H   4.00732559146086     -0.10234083889425      1.39198284825035
  H   2.45555130066689     -0.95570269827569      1.32045051052604
